#    Name:    2kaw_ligand
#    Version:    PDBbind v2024

@<TRIPOS>MOLECULE
2kaw_ligand
   41    43     1     0     0
SMALL
USER_CHARGES

@<TRIPOS>ATOM
      1 S           4.6610   -5.9370   -9.3700 S.o       1 SUZ         0.0000
      2 F          -0.6430   -6.3150   -3.7770 F         1 SUZ         0.0000
      3 O1          4.2990   -7.2510   -8.9250 O.2       1 SUZ         0.0000
      4 O3         -5.5080   -1.7020   -7.3170 O.co2     1 SUZ        -0.5000
      5 O2         -6.1260   -3.2140   -5.8220 O.co2     1 SUZ        -0.5000
      6 C1          5.6750   -5.1820   -8.1330 C.3       1 SUZ         0.0000
      7 C9         -3.1020   -1.0600   -8.4160 C.3       1 SUZ         0.0000
      8 C20         3.2420   -3.7530   -8.5550 C.ar      1 SUZ         0.0000
      9 C3          2.2690   -5.0560  -10.3590 C.ar      1 SUZ         0.0000
     10 C16         0.3390   -5.5940   -5.8080 C.ar      1 SUZ         0.0000
     11 C19         2.1680   -2.8740   -8.5960 C.ar      1 SUZ         0.0000
     12 C4          1.1700   -4.1550  -10.4010 C.ar      1 SUZ         0.0000
     13 C17         0.3390   -4.7990   -6.9020 C.ar      1 SUZ         0.0000
     14 C14        -1.7160   -4.6030   -4.9960 C.ar      1 SUZ         0.0000
     15 C6         -0.2430   -2.4390   -9.2670 C.2       1 SUZ         0.0000
     16 C11        -3.8850   -2.3260   -5.5870 C.3       1 SUZ         0.0000
     17 C2          3.2980   -4.8570   -9.4500 C.ar      1 SUZ         0.0000
     18 C12        -5.2500   -2.4510   -6.2570 C.2       1 SUZ         0.0000
     19 C15        -0.6770   -5.5080   -4.8480 C.ar      1 SUZ         0.0000
     20 C8         -2.3630   -2.1310   -7.7110 C.2       1 SUZ         0.0000
     21 C5          1.1080   -3.0720   -9.5400 C.ar      1 SUZ         0.0000
     22 C7         -1.0920   -2.7980   -8.1220 C.2       1 SUZ         0.0000
     23 C18        -0.7090   -3.8660   -7.0680 C.ar      1 SUZ         0.0000
     24 C13        -1.7230   -3.7950   -6.0980 C.ar      1 SUZ         0.0000
     25 C10        -2.7070   -2.7140   -6.5400 C.2       1 SUZ         0.0000
     26 H           6.5852   -5.7825   -7.9884 H         1 SUZ         0.0000
     27 H           5.1180   -5.1265   -7.1861 H         1 SUZ         0.0000
     28 H           5.9524   -4.1675   -8.4553 H         1 SUZ         0.0000
     29 H          -2.5705   -0.7963   -9.3422 H         1 SUZ         0.0000
     30 H          -3.1707   -0.1740   -7.7677 H         1 SUZ         0.0000
     31 H          -4.1141   -1.4137   -8.6620 H         1 SUZ         0.0000
     32 H           4.0449   -3.5965   -7.8346 H         1 SUZ         0.0000
     33 H           2.3032   -5.9046  -11.0422 H         1 SUZ         0.0000
     34 H           1.1448   -6.3151   -5.6709 H         1 SUZ         0.0000
     35 H           2.1309   -2.0299   -7.9074 H         1 SUZ         0.0000
     36 H           0.3667   -4.3185  -11.1194 H         1 SUZ         0.0000
     37 H           1.1343   -4.8767   -7.6434 H         1 SUZ         0.0000
     38 H          -2.5089   -4.5372   -4.2510 H         1 SUZ         0.0000
     39 H          -0.5786   -1.6733   -9.9819 H         1 SUZ         0.0000
     40 H          -3.7288   -1.2860   -5.2644 H         1 SUZ         0.0000
     41 H          -3.8437   -2.9914   -4.7121 H         1 SUZ         0.0000
@<TRIPOS>BOND
     1    1    3 2
     2    1    6 1
     3    1   17 1
     4    2   19 1
     5    4   18 ar
     6    5   18 ar
     7    6   26 1
     8    6   27 1
     9    6   28 1
    10    7   20 1
    11    7   29 1
    12    7   30 1
    13    7   31 1
    14    8   11 ar
    15    8   17 ar
    16    8   32 1
    17    9   12 ar
    18    9   17 ar
    19    9   33 1
    20   10   13 ar
    21   10   19 ar
    22   10   34 1
    23   11   21 ar
    24   11   35 1
    25   12   21 ar
    26   12   36 1
    27   13   23 ar
    28   13   37 1
    29   14   19 ar
    30   14   24 ar
    31   14   38 1
    32   15   21 1
    33   15   22 2
    34   15   39 1
    35   16   18 1
    36   16   25 1
    37   16   40 1
    38   16   41 1
    39   20   22 1
    40   20   25 2
    41   22   23 1
    42   23   24 ar
    43   24   25 1

