#    Name:    2kfx_ligand
#    Version:    PDBbind v2024

@<TRIPOS>MOLECULE
2kfx_ligand
   44    45     1     0     0
SMALL
USER_CHARGES

@<TRIPOS>ATOM
      1 CL1        85.3400    0.5440   -0.6480 Cl        1 WW7         0.0000
      2 S1         80.5120    3.5460   -4.6840 S.o2      1 WW7         0.0000
      3 O1         81.1220    3.1440   -5.9080 O.2       1 WW7         0.0000
      4 O2         80.0010    4.8940   -4.6240 O.2       1 WW7         0.0000
      5 N2         81.2660    4.4210    1.5760 N.4       1 WW7         1.0000
      6 N1         79.1720    2.4680   -4.4240 N.am      1 WW7         0.0000
      7 C7         83.1880   -0.1340   -4.0650 C.ar      1 WW7         0.0000
      8 C3         82.7070    4.2620   -1.2390 C.ar      1 WW7         0.0000
      9 C6         84.1160   -0.2700   -2.9400 C.ar      1 WW7         0.0000
     10 C2         81.7800    4.3970   -2.3630 C.ar      1 WW7         0.0000
     11 C4         83.5310    3.0740   -1.0900 C.ar      1 WW7         0.0000
     12 C8         82.3690    1.0600   -4.2180 C.ar      1 WW7         0.0000
     13 C16        80.6500    3.1660    1.1770 C.3       1 WW7         0.0000
     14 C11        77.8860    3.0730   -4.0850 C.3       1 WW7         0.0000
     15 C15        79.2490    3.3530    0.5860 C.3       1 WW7         0.0000
     16 C12        77.4570    2.8470   -2.6360 C.3       1 WW7         0.0000
     17 C14        79.2170    2.8360   -0.8560 C.3       1 WW7         0.0000
     18 C13        78.2960    3.7170   -1.7000 C.3       1 WW7         0.0000
     19 C5         84.2360    0.7930   -1.9530 C.ar      1 WW7         0.0000
     20 C1         81.6580    3.3380   -3.3570 C.ar      1 WW7         0.0000
     21 C10        83.4330    2.0030   -2.0750 C.ar      1 WW7         0.0000
     22 C9         82.4730    2.1370   -3.2400 C.ar      1 WW7         0.0000
     23 H          82.2654    4.2233    1.9909 H         1 WW7         0.0000
     24 H          80.6422    4.9093    2.3392 H         1 WW7         0.0000
     25 H          81.3565    5.0799    0.6998 H         1 WW7         0.0000
     26 H          79.3054    1.3790   -4.3449 H         1 WW7         0.0000
     27 H          83.1095   -0.9374   -4.7974 H         1 WW7         0.0000
     28 H          82.7806    5.0631   -0.5035 H         1 WW7         0.0000
     29 H          84.7199   -1.1720   -2.8414 H         1 WW7         0.0000
     30 H          81.1747    5.2985   -2.4579 H         1 WW7         0.0000
     31 H          84.2174    2.9842   -0.2480 H         1 WW7         0.0000
     32 H          81.6816    1.1486   -5.0592 H         1 WW7         0.0000
     33 H          81.2738    2.6777    0.4138 H         1 WW7         0.0000
     34 H          80.5595    2.5071    2.0531 H         1 WW7         0.0000
     35 H          77.9395    4.1604   -4.2424 H         1 WW7         0.0000
     36 H          77.1002    2.6479   -4.7267 H         1 WW7         0.0000
     37 H          78.5191    2.7923    1.1884 H         1 WW7         0.0000
     38 H          78.9873    4.4214    0.5939 H         1 WW7         0.0000
     39 H          76.3956    3.1126   -2.5222 H         1 WW7         0.0000
     40 H          77.6005    1.7889   -2.3719 H         1 WW7         0.0000
     41 H          80.2327    2.8621   -1.2775 H         1 WW7         0.0000
     42 H          78.8421    1.8019   -0.8666 H         1 WW7         0.0000
     43 H          78.9054    4.4134   -2.2947 H         1 WW7         0.0000
     44 H          77.6308    4.2876   -1.0352 H         1 WW7         0.0000
@<TRIPOS>BOND
     1    1   19 1
     2    2    3 2
     3    2    4 2
     4    2    6 am
     5    2   20 1
     6    5   13 1
     7    5   23 1
     8    5   24 1
     9    5   25 1
    10    6   14 1
    11    6   26 1
    12    7    9 ar
    13    7   12 ar
    14    7   27 1
    15    8   10 ar
    16    8   11 ar
    17    8   28 1
    18    9   19 ar
    19    9   29 1
    20   10   20 ar
    21   10   30 1
    22   11   21 ar
    23   11   31 1
    24   12   22 ar
    25   12   32 1
    26   13   15 1
    27   13   33 1
    28   13   34 1
    29   14   16 1
    30   14   35 1
    31   14   36 1
    32   15   17 1
    33   15   37 1
    34   15   38 1
    35   16   18 1
    36   16   39 1
    37   16   40 1
    38   17   18 1
    39   17   41 1
    40   17   42 1
    41   18   43 1
    42   18   44 1
    43   19   21 ar
    44   20   22 ar
    45   21   22 ar

