#    Name:    2p0x_ligand
#    Version:    PDBbind v2024

@<TRIPOS>MOLECULE
2p0x_ligand
   43    45     1     0     0
SMALL
USER_CHARGES

@<TRIPOS>ATOM
      1 PG          1.6760    0.0200   12.4610 P.3       1 ATP         0.0000
      2 O1G         0.8670   -0.7850   13.4040 O.co2     1 ATP        -0.6667
      3 O2G         3.1870    0.1240   13.0090 O.co2     1 ATP        -0.6667
      4 O3G         1.0460    1.4930   12.3210 O.co2     1 ATP        -0.6667
      5 PB          0.1710   -0.6460   10.4630 P.3       1 ATP         0.0000
      6 O1B        -0.7800   -0.6640   11.5980 O.co2     1 ATP        -0.5000
      7 O2B        -0.0490    0.6970    9.6020 O.co2     1 ATP        -0.5000
      8 O3B         1.6820   -0.6980   11.0170 O.3       1 ATP         0.0000
      9 PA          0.9450   -1.8340    8.3000 P.3       1 ATP         0.0000
     10 O1A         2.2920   -1.4980    8.8120 O.co2     1 ATP        -0.5000
     11 O2A         0.4670   -0.6930    7.2640 O.co2     1 ATP        -0.5000
     12 O3A        -0.0960   -1.9260    9.5240 O.3       1 ATP         0.0000
     13 O5'         1.0010   -3.2570    7.5440 O.3       1 ATP         0.0000
     14 C5'         1.5460   -3.0220    6.2440 C.3       1 ATP         0.0000
     15 C4'         2.6690   -4.0270    5.9720 C.3       1 ATP         0.0000
     16 O4'         2.1470   -5.2560    5.4020 O.3       1 ATP         0.0000
     17 C3'         3.6810   -3.4820    4.9590 C.3       1 ATP         0.0000
     18 O3'         5.0050   -3.9330    5.2640 O.3       1 ATP         0.0000
     19 C2'         3.1810   -4.0000    3.6060 C.3       1 ATP         0.0000
     20 O2'         4.2710   -4.4540    2.7980 O.3       1 ATP         0.0000
     21 C1'         2.1900   -5.1360    3.9460 C.3       1 ATP         0.0000
     22 N9          0.8560   -4.8190    3.4240 N.pl3     1 ATP         0.0000
     23 C8         -0.2540   -4.5370    4.1700 C.2       1 ATP         0.0000
     24 N7         -1.2330   -4.1720    3.3940 N.2       1 ATP         0.0000
     25 C5         -0.8720   -4.3700    2.1070 C.ar      1 ATP         0.0000
     26 C6         -1.5180   -4.2780    0.8480 C.ar      1 ATP         0.0000
     27 N6         -2.8790   -4.0440    0.7750 N.pl3     1 ATP         0.0000
     28 N1         -0.7800   -4.4220   -0.2830 N.ar      1 ATP         0.0000
     29 C2          0.4930   -4.8370   -0.2470 C.ar      1 ATP         0.0000
     30 N3          1.1230   -4.9850    0.9200 N.ar      1 ATP         0.0000
     31 C4          0.4920   -4.7580    2.1020 C.ar      1 ATP         0.0000
     32 H           0.7559   -3.1416    5.4881 H         1 ATP         0.0000
     33 H           1.9489   -1.9996    6.1946 H         1 ATP         0.0000
     34 H           3.1361   -4.2639    6.9393 H         1 ATP         0.0000
     35 H           3.8165   -2.3907    4.9842 H         1 ATP         0.0000
     36 H           5.4845   -3.6331    6.2075 H         1 ATP         0.0000
     37 H           2.7457   -3.2210    2.9629 H         1 ATP         0.0000
     38 H           5.0526   -3.7476    2.4815 H         1 ATP         0.0000
     39 H           2.4713   -6.1074    3.5132 H         1 ATP         0.0000
     40 H          -0.3109   -4.6074    5.2552 H         1 ATP         0.0000
     41 H          -3.4675   -3.9289    1.6972 H         1 ATP         0.0000
     42 H          -3.3731   -3.9730   -0.2052 H         1 ATP         0.0000
     43 H           1.0149   -5.0541   -1.1720 H         1 ATP         0.0000
@<TRIPOS>BOND
     1    1    2 ar
     2    1    3 ar
     3    1    4 ar
     4    1    8 1
     5    5    6 ar
     6    5    7 ar
     7    5    8 1
     8    5   12 1
     9    9   10 ar
    10    9   11 ar
    11    9   12 1
    12    9   13 1
    13   13   14 1
    14   14   15 1
    15   14   32 1
    16   14   33 1
    17   15   16 1
    18   15   17 1
    19   15   34 1
    20   16   21 1
    21   17   18 1
    22   17   19 1
    23   17   35 1
    24   18   36 1
    25   19   20 1
    26   19   21 1
    27   19   37 1
    28   20   38 1
    29   21   22 1
    30   21   39 1
    31   22   23 1
    32   22   31 1
    33   23   24 2
    34   23   40 1
    35   24   25 1
    36   25   26 ar
    37   25   31 ar
    38   26   27 1
    39   26   28 ar
    40   27   41 1
    41   27   42 1
    42   28   29 ar
    43   29   30 ar
    44   29   43 1
    45   30   31 ar

