#    Name:    2m3z_ligand
#    Version:    PDBbind v2024

@<TRIPOS>MOLECULE
2m3z_ligand
   37    40     1     0     0
SMALL
USER_CHARGES

@<TRIPOS>ATOM
      1 S          -8.1540    2.0780   33.4890 S.3       1 1HF         0.0000
      2 S1         -4.1630   -4.6790   35.2200 S.o2      1 1HF         0.0000
      3 O3         -3.1050   -5.6950   35.1420 O.co2     1 1HF        -0.3333
      4 O4         -3.9610   -3.6600   36.2620 O.co2     1 1HF        -0.3333
      5 O5         -5.5260   -5.2290   35.2390 O.co2     1 1HF        -0.3333
      6 O1         -9.1360    1.6950   37.1770 O.2       1 1HF         0.0000
      7 O          -5.4250    0.3350   29.6730 O.2       1 1HF         0.0000
      8 O2         -8.9560    4.8260   32.9150 O.3       1 1HF         0.0000
      9 N1         -7.1490   -0.4770   33.7040 N.2       1 1HF         0.0000
     10 N          -6.7270   -0.2330   32.2960 N.2       1 1HF         0.0000
     11 N3         -8.2070    0.5450   35.5110 N.am      1 1HF         0.0000
     12 N2         -4.1670   -1.4220   30.2830 N.am      1 1HF         0.0000
     13 C13        -9.2000    6.0890   32.4320 C.2       1 1HF         0.0000
     14 C14        -9.7940    6.9150   33.3460 C.2       1 1HF         0.0000
     15 C15        -9.9320    6.1280   34.5270 C.2       1 1HF         0.0000
     16 C2         -3.0800   -4.0010   32.7430 C.ar      1 1HF         0.0000
     17 C1         -3.0480   -3.2770   31.5470 C.ar      1 1HF         0.0000
     18 C10        -9.3470    3.9190   35.1290 C.2       1 1HF         0.0000
     19 C4         -5.0740   -2.7860   33.4580 C.ar      1 1HF         0.0000
     20 C7         -7.7740    0.5250   34.2140 C.2       1 1HF         0.0000
     21 C9         -8.8370    2.6480   34.9840 C.2       1 1HF         0.0000
     22 C3         -4.0990   -3.7650   33.6850 C.ar      1 1HF         0.0000
     23 C12        -8.7710    1.6280   36.0210 C.2       1 1HF         0.0000
     24 C8         -5.1820   -0.5680   30.4580 C.2       1 1HF         0.0000
     25 C11        -9.4100    4.9020   34.2090 C.2       1 1HF         0.0000
     26 C          -4.0240   -2.3170   31.3540 C.ar      1 1HF         0.0000
     27 C6         -5.7720   -0.9390   31.7740 C.2       1 1HF         0.0000
     28 C5         -4.9960   -2.0470   32.2820 C.ar      1 1HF         0.0000
     29 H          -8.0883   -0.3466   36.1443 H         1 1HF         0.0000
     30 H          -3.5538   -1.3681   29.3714 H         1 1HF         0.0000
     31 H          -8.9451    6.4020   31.4195 H         1 1HF         0.0000
     32 H         -10.0969    7.9522   33.2025 H         1 1HF         0.0000
     33 H         -10.3615    6.4363   35.4802 H         1 1HF         0.0000
     34 H          -2.3143   -4.7496   32.9462 H         1 1HF         0.0000
     35 H          -2.2816   -3.4628   30.7945 H         1 1HF         0.0000
     36 H          -9.7717    4.2345   36.0934 H         1 1HF         0.0000
     37 H          -5.8701   -2.6083   34.1810 H         1 1HF         0.0000
@<TRIPOS>BOND
     1    1   20 1
     2    1   21 1
     3    2    3 ar
     4    2    4 ar
     5    2    5 ar
     6    2   22 1
     7    6   23 2
     8    7   24 2
     9    8   13 1
    10    8   25 1
    11    9   10 1
    12    9   20 2
    13   10   27 2
    14   11   20 1
    15   11   23 am
    16   11   29 1
    17   12   24 am
    18   12   26 1
    19   12   30 1
    20   13   14 2
    21   13   31 1
    22   14   15 1
    23   14   32 1
    24   15   25 2
    25   15   33 1
    26   16   17 ar
    27   16   22 ar
    28   16   34 1
    29   17   26 ar
    30   17   35 1
    31   18   21 2
    32   18   25 1
    33   18   36 1
    34   19   22 ar
    35   19   28 ar
    36   19   37 1
    37   21   23 1
    38   24   27 1
    39   26   28 ar
    40   27   28 1

