#    Name:    6v1c_ligand
#    Version:    PDBbind v2024

@<TRIPOS>MOLECULE
6v1c_ligand
   51    52     1     0     0
SMALL
USER_CHARGES

@<TRIPOS>ATOM
      1 OAO        12.5500   -1.9710  -10.0740 O.2       1 4A4         0.0000
      2 O6          8.8340    3.2930   -9.3710 O.3       1 4A4         0.0000
      3 OAZ        13.8530   -1.2380   -4.4020 O.3       1 4A4         0.0000
      4 OAV        16.8430    2.5360   -4.8520 O.3       1 4A4         0.0000
      5 OAW        15.3650    4.8520   -5.1420 O.3       1 4A4         0.0000
      6 O4         11.9190    3.8000  -11.1860 O.3       1 4A4         0.0000
      7 OAX        12.7790    4.5360   -6.2650 O.3       1 4A4         0.0000
      8 O3         13.2160    1.2740  -11.4670 O.3       1 4A4         0.0000
      9 OAY        15.0080    1.2180   -5.1480 O.3       1 4A4         0.0000
     10 O5         10.9430    2.1220   -8.0830 O.3       1 4A4         0.0000
     11 O1         13.0930    1.8710   -7.2160 O.3       1 4A4         0.0000
     12 N2         13.5950   -0.2530   -9.0860 N.am      1 4A4         0.0000
     13 CAN        14.7450   -2.3600   -9.2180 C.3       1 4A4         0.0000
     14 C6          9.9660    4.0560   -9.0000 C.3       1 4A4         0.0000
     15 CAU        13.2470   -0.3440   -5.3280 C.3       1 4A4         0.0000
     16 CAM        13.5370   -1.5210   -9.4990 C.2       1 4A4         0.0000
     17 CAP        15.4850    2.4820   -4.6960 C.3       1 4A4         0.0000
     18 C1         12.0200    1.2280   -7.8920 C.3       1 4A4         0.0000
     19 CAQ        14.8700    3.5780   -5.5460 C.3       1 4A4         0.0000
     20 C4         11.6270    2.6980  -10.3400 C.3       1 4A4         0.0000
     21 CAR        13.3560    3.5280   -5.4350 C.3       1 4A4         0.0000
     22 C3         12.8410    1.8060  -10.1950 C.3       1 4A4         0.0000
     23 C5         11.2220    3.2190   -8.9660 C.3       1 4A4         0.0000
     24 CAT        13.5910    1.0830   -4.9790 C.3       1 4A4         0.0000
     25 CAS        12.8760    2.1350   -5.8160 C.3       1 4A4         0.0000
     26 C2         12.4820    0.6680   -9.2420 C.3       1 4A4         0.0000
     27 H           7.8459    3.7718   -9.4380 H         1 4A4         0.0000
     28 H          13.7058   -2.3229   -4.5081 H         1 4A4         0.0000
     29 H          17.4868    1.8216   -4.3180 H         1 4A4         0.0000
     30 H          16.4461    5.0539   -5.1631 H         1 4A4         0.0000
     31 H          12.2322    3.6270  -12.2262 H         1 4A4         0.0000
     32 H          13.0355    5.5936   -6.1048 H         1 4A4         0.0000
     33 H          13.5081    1.9522  -12.2823 H         1 4A4         0.0000
     34 H          14.5281    0.0870   -8.6130 H         1 4A4         0.0000
     35 H          14.5817   -3.3780   -9.6015 H         1 4A4         0.0000
     36 H          14.9188   -2.4006   -8.1326 H         1 4A4         0.0000
     37 H          15.6219   -1.9178   -9.7135 H         1 4A4         0.0000
     38 H          10.1136    4.8696   -9.7255 H         1 4A4         0.0000
     39 H           9.8087    4.4822   -7.9982 H         1 4A4         0.0000
     40 H          13.6118   -0.5638   -6.3422 H         1 4A4         0.0000
     41 H          12.1545   -0.4683   -5.2964 H         1 4A4         0.0000
     42 H          15.2882    2.5664   -3.6170 H         1 4A4         0.0000
     43 H          11.6557    0.4509   -7.2040 H         1 4A4         0.0000
     44 H          15.1809    3.4795   -6.5965 H         1 4A4         0.0000
     45 H          10.8104    2.1558  -10.8392 H         1 4A4         0.0000
     46 H          13.0065    3.7842   -4.4240 H         1 4A4         0.0000
     47 H          13.7184    2.3758   -9.8552 H         1 4A4         0.0000
     48 H          12.0673    3.8032   -8.5733 H         1 4A4         0.0000
     49 H          13.3140    1.2687   -3.9308 H         1 4A4         0.0000
     50 H          11.7866    2.0756   -5.6756 H         1 4A4         0.0000
     51 H          11.6822    0.0527   -9.6799 H         1 4A4         0.0000
@<TRIPOS>BOND
     1    1   16 2
     2    2   14 1
     3    2   27 1
     4    3   15 1
     5    3   28 1
     6    4   17 1
     7    4   29 1
     8    5   19 1
     9    5   30 1
    10    6   20 1
    11    6   31 1
    12    7   21 1
    13    7   32 1
    14    8   22 1
    15    8   33 1
    16    9   17 1
    17    9   24 1
    18   10   18 1
    19   10   23 1
    20   11   18 1
    21   11   25 1
    22   12   16 am
    23   12   26 1
    24   12   34 1
    25   13   16 1
    26   13   35 1
    27   13   36 1
    28   13   37 1
    29   14   23 1
    30   14   38 1
    31   14   39 1
    32   15   24 1
    33   15   40 1
    34   15   41 1
    35   17   19 1
    36   17   42 1
    37   18   26 1
    38   18   43 1
    39   19   21 1
    40   19   44 1
    41   20   22 1
    42   20   23 1
    43   20   45 1
    44   21   25 1
    45   21   46 1
    46   22   26 1
    47   22   47 1
    48   23   48 1
    49   24   25 1
    50   24   49 1
    51   25   50 1
    52   26   51 1

