@<TRIPOS>MOLECULE
*****
 36 39 0 0 0
SMALL
GASTEIGER

@<TRIPOS>ATOM
      1  CBI        2.4380  -40.2500  -54.7940 C.3   1201  OWY1201     0.0233
      2  CBG        1.7940  -39.5550  -53.5960 C.3   1201  OWY1201     0.0938
      3  NBF        2.0070  -40.2040  -52.4380 N.am  1201  OWY1201    -0.2761
      4  CBH        1.1440  -41.2010  -52.1070 C.3   1201  OWY1201     0.0938
      5  CBJ       -0.1380  -40.8030  -51.3270 C.3   1201  OWY1201     0.0233
      6  CBD        3.0820  -39.8350  -51.6770 C.2   1201  OWY1201     0.2490
      7  OBE        3.7910  -38.9350  -52.0480 O.2   1201  OWY1201    -0.2699
      8  CAZ        3.4850  -40.4720  -50.3920 C.ar  1201  OWY1201     0.0536
      9  CBA        4.6470  -41.2700  -50.3400 C.ar  1201  OWY1201     0.0042
     10  CBB        5.0700  -41.8430  -49.1230 C.ar  1201  OWY1201    -0.0025
     11  CAY        2.7870  -40.1950  -49.2050 C.ar  1201  OWY1201     0.0042
     12  CAX        3.1900  -40.7800  -47.9960 C.ar  1201  OWY1201    -0.0025
     13  CAR        4.3490  -41.5900  -47.9380 C.ar  1201  OWY1201    -0.0036
     14  CAP        4.7920  -42.2210  -46.6610 C.3   1201  OWY1201     0.1031
     15  CAQ        3.7740  -43.2220  -46.2490 C.ar  1201  OWY1201    -0.0005
     16  CAS        3.8640  -44.4970  -46.8120 C.ar  1201  OWY1201     0.0394
     17  CAT        2.8970  -45.4680  -46.5210 C.ar  1201  OWY1201     0.1955
     18  OBC        2.9930  -46.6920  -47.1220 O.3   1201  OWY1201    -0.2866
     19  CAU        1.8470  -45.1860  -45.6330 C.ar  1201  OWY1201     0.0420
     20  CAV        1.7360  -43.9040  -45.0720 C.ar  1201  OWY1201     0.0030
     21  CAW        2.6910  -42.9220  -45.3880 C.ar  1201  OWY1201    -0.0024
     22  NAK        5.1400  -41.2650  -45.5940 N.3   1201  OWY1201    -0.2656
     23  CAJ        5.6980  -41.8580  -44.3860 C.3   1201  OWY1201     0.0741
     24  CAI        5.6450  -40.7620  -43.2900 C.3   1201  OWY1201     0.0885
     25  CAO        7.0920  -42.5110  -44.5060 C.3   1201  OWY1201     0.0188
     26  CAL        5.9820  -40.1300  -46.0710 C.3   1201  OWY1201     0.0887
     27  CAM        5.8240  -38.9830  -45.0230 C.3   1201  OWY1201     0.0739
     28  CAN        4.4030  -38.4130  -45.1200 C.3   1201  OWY1201     0.0188
     29  NAH        6.2180  -39.4710  -43.6980 N.3   1201  OWY1201    -0.2677
     30  CAG        6.0230  -38.4110  -42.6560 C.3   1201  OWY1201     0.0992
     31  CAB        6.5190  -38.7010  -41.2890 C.ar  1201  OWY1201    -0.0061
     32  CAA        5.6830  -38.4070  -40.1900 C.ar  1201  OWY1201    -0.0029
     33  CAF        6.1120  -38.6640  -38.8690 C.ar  1201  OWY1201    -0.0003
     34  CAE        7.3950  -39.1860  -38.6320 C.ar  1201  OWY1201    -0.0000
     35  CAD        8.2480  -39.4510  -39.7240 C.ar  1201  OWY1201    -0.0003
     36  CAC        7.8170  -39.2090  -41.0480 C.ar  1201  OWY1201    -0.0029
@<TRIPOS>BOND
     1     1     2    1
     2     2     3    1
     3     3     4    1
     4     3     6   am
     5     4     5    1
     6     7     6    2
     7     6     8    1
     8     8     9   ar
     9     8    11   ar
    10     9    10   ar
    11    11    12   ar
    12    10    13   ar
    13    12    13   ar
    14    13    14    1
    15    18    17    1
    16    16    17   ar
    17    16    15   ar
    18    14    15    1
    19    14    22    1
    20    17    19   ar
    21    15    21   ar
    22    26    22    1
    23    26    27    1
    24    19    20   ar
    25    22    23    1
    26    21    20   ar
    27    28    27    1
    28    27    29    1
    29    25    23    1
    30    23    24    1
    31    29    24    1
    32    29    30    1
    33    30    31    1
    34    31    36   ar
    35    31    32   ar
    36    36    35   ar
    37    32    33   ar
    38    35    34   ar
    39    33    34   ar
