train__NCGC00013037-01
     RDKit          3D

  0  0  0  0  0  0  0  0  0  0999 V3000
M  V30 BEGIN CTAB
M  V30 COUNTS 36 37 0 0 1
M  V30 BEGIN ATOM
M  V30 1 C 0.833371 -2.941192 -0.273889 0
M  V30 2 C -0.534356 -2.318801 -0.693578 0
M  V30 3 C -1.125883 -3.303120 -1.752344 0
M  V30 4 C -1.481259 -2.004256 0.491552 0 CFG=2
M  V30 5 C -2.697348 -1.324359 -0.184024 0
M  V30 6 C -2.026491 -0.490746 -1.298195 0
M  V30 7 C -0.513468 -0.816444 -1.117525 0 CFG=2
M  V30 8 C 0.312730 -0.479007 -2.377897 0
M  V30 9 C -0.078237 -0.055086 0.176418 0 CFG=2
M  V30 10 O 1.344026 0.021098 0.302255 0
M  V30 11 C 1.930018 0.851505 1.193004 0
M  V30 12 O 1.349104 1.605086 1.976389 0
M  V30 13 C 3.453266 0.780587 1.139881 0
M  V30 14 S 4.029493 2.196222 0.163358 0
M  V30 15 C 5.707615 1.935021 0.260956 0
M  V30 16 N 6.837814 1.715306 0.373201 0
M  V30 17 C -0.727221 -0.913013 1.296304 0
M  V30 18 H 1.343399 -2.432972 0.540021 0
M  V30 19 H 0.704088 -3.972068 0.058185 0
M  V30 20 H 1.527953 -2.961433 -1.114347 0
M  V30 21 H -2.070011 -2.990215 -2.193248 0
M  V30 22 H -0.434362 -3.445012 -2.583912 0
M  V30 23 H -1.303108 -4.285197 -1.312239 0
M  V30 24 H -1.755530 -2.870583 1.094729 0
M  V30 25 H -3.390322 -2.059004 -0.595811 0
M  V30 26 H -3.268541 -0.705602 0.509893 0
M  V30 27 H -2.396474 -0.780106 -2.282791 0
M  V30 28 H -2.238625 0.574310 -1.189646 0
M  V30 29 H 0.280593 0.589621 -2.592205 0
M  V30 30 H 1.359846 -0.758983 -2.260684 0
M  V30 31 H -0.067935 -1.001225 -3.256052 0
M  V30 32 H -0.468048 0.965197 0.162240 0
M  V30 33 H 3.870882 0.809886 2.146461 0
M  V30 34 H 3.779491 -0.144805 0.663594 0
M  V30 35 H -1.391609 -0.323391 1.929119 0
M  V30 36 H 0.013413 -1.368178 1.954685 0
M  V30 END ATOM
M  V30 BEGIN BOND
M  V30 1 1 2 1
M  V30 2 1 3 2
M  V30 3 1 4 2
M  V30 4 1 5 4
M  V30 5 1 6 5
M  V30 6 1 7 2
M  V30 7 1 7 6
M  V30 8 1 7 8 CFG=3
M  V30 9 1 9 7
M  V30 10 1 10 9
M  V30 11 1 11 10
M  V30 12 2 12 11
M  V30 13 1 13 11
M  V30 14 1 14 13
M  V30 15 1 15 14
M  V30 16 3 16 15
M  V30 17 1 17 4
M  V30 18 1 17 9
M  V30 19 1 18 1
M  V30 20 1 19 1
M  V30 21 1 20 1
M  V30 22 1 21 3
M  V30 23 1 22 3
M  V30 24 1 23 3
M  V30 25 1 4 24 CFG=1
M  V30 26 1 25 5
M  V30 27 1 26 5
M  V30 28 1 27 6
M  V30 29 1 28 6
M  V30 30 1 29 8
M  V30 31 1 30 8
M  V30 32 1 31 8
M  V30 33 1 9 32 CFG=3
M  V30 34 1 33 13
M  V30 35 1 34 13
M  V30 36 1 35 17
M  V30 37 1 36 17
M  V30 END BOND
M  V30 END CTAB
M  END
>  <i_f3d_flags>  (1) 
0

>  <i_lp_mmshare_version>  (1) 
69129

>  <i_m_source_file_index>  (1) 
1

>  <b_lp_Chiralities_Consistent>  (1) 
1

>  <r_lp_Energy>  (1) 
41.525813999999997

>  <r_lp_tautomer_probability>  (1) 
1

>  <s_lp_Force_Field>  (1) 
S-OPLS

>  <s_lp_Variant>  (1) 
train__NCGC00013037-01-1

>  <s_m_source_file>  (1) 
data/3d_structures/input/chunks/chunk_0001.smi
$$$$
