#    Name:    4jv7_ligand
#    Version:    PDBbind v2024

@<TRIPOS>MOLECULE
4jv7_ligand
   50    53     1     0     0
SMALL
USER_CHARGES

@<TRIPOS>ATOM
      1 BR2         6.2830  -39.2410    0.3890 Br        1 1MN         0.0000
      2 BR1         7.9080  -32.5810    3.3970 Br        1 1MN         0.0000
      3 O1          4.0830  -30.3540   -3.5440 O.2       1 1MN         0.0000
      4 O2          5.5070  -33.6210   -3.0610 O.3       1 1MN         0.0000
      5 N1          3.6770  -31.8270   -1.9150 N.am      1 1MN         0.0000
      6 C8          2.7460  -30.9590   -1.1850 C.3       1 1MN         0.0000
      7 C15         7.5680  -34.3800   -8.1160 C.ar      1 1MN         0.0000
      8 C14         6.8310  -35.2740   -7.3280 C.ar      1 1MN         0.0000
      9 C16         7.3750  -33.0060   -7.9670 C.ar      1 1MN         0.0000
     10 C21         4.3630  -37.5290   -0.6360 C.ar      1 1MN         0.0000
     11 C23         6.6850  -36.8780   -1.0700 C.ar      1 1MN         0.0000
     12 C2          5.5010  -33.4470    2.1790 C.ar      1 1MN         0.0000
     13 C4          6.8900  -31.9420    0.8610 C.ar      1 1MN         0.0000
     14 C13         5.8930  -34.7890   -6.3840 C.ar      1 1MN         0.0000
     15 C17         6.4580  -32.5180   -7.0440 C.ar      1 1MN         0.0000
     16 C20         3.8940  -36.3320   -1.2310 C.ar      1 1MN         0.0000
     17 C24         6.2150  -35.7080   -1.6540 C.ar      1 1MN         0.0000
     18 C3          4.6850  -33.5470    1.0860 C.ar      1 1MN         0.0000
     19 C5          6.0400  -32.0560   -0.2580 C.ar      1 1MN         0.0000
     20 C11         4.7170  -32.7330   -5.2730 C.3       1 1MN         0.0000
     21 C22         5.7300  -37.7600   -0.5630 C.ar      1 1MN         0.0000
     22 C1          6.6190  -32.6400    2.0390 C.ar      1 1MN         0.0000
     23 C9          4.2780  -31.4680   -3.0730 C.2       1 1MN         0.0000
     24 C10         5.2740  -32.4550   -3.8400 C.3       1 1MN         0.0000
     25 C18         4.3680  -34.1260   -2.3830 C.3       1 1MN         0.0000
     26 C7          3.9890  -33.0780   -1.3550 C.3       1 1MN         0.0000
     27 C12         5.6980  -33.3860   -6.2350 C.ar      1 1MN         0.0000
     28 C19         4.8310  -35.4150   -1.7410 C.ar      1 1MN         0.0000
     29 C6          4.9120  -32.8900   -0.1430 C.ar      1 1MN         0.0000
     30 H           2.6022  -30.0229   -1.7445 H         1 1MN         0.0000
     31 H           3.1589  -30.7324   -0.1909 H         1 1MN         0.0000
     32 H           1.7790  -31.4711   -1.0724 H         1 1MN         0.0000
     33 H           8.2888  -34.7561   -8.8421 H         1 1MN         0.0000
     34 H           6.9802  -36.3477   -7.4420 H         1 1MN         0.0000
     35 H           7.9481  -32.3100   -8.5795 H         1 1MN         0.0000
     36 H           3.6585  -38.2604   -0.2400 H         1 1MN         0.0000
     37 H           7.7512  -37.0968   -1.0106 H         1 1MN         0.0000
     38 H           5.2841  -33.9729    3.1088 H         1 1MN         0.0000
     39 H           7.7697  -31.3008    0.8055 H         1 1MN         0.0000
     40 H           5.3217  -35.4878   -5.7730 H         1 1MN         0.0000
     41 H           6.3238  -31.4410   -6.9437 H         1 1MN         0.0000
     42 H           2.8256  -36.1251   -1.2926 H         1 1MN         0.0000
     43 H           6.9326  -34.9937   -2.0575 H         1 1MN         0.0000
     44 H           3.7992  -34.1767    1.1693 H         1 1MN         0.0000
     45 H           6.2494  -31.5162   -1.1815 H         1 1MN         0.0000
     46 H           3.8502  -33.4068   -5.2051 H         1 1MN         0.0000
     47 H           4.4086  -31.7845   -5.7369 H         1 1MN         0.0000
     48 H           6.3101  -32.0963   -3.9287 H         1 1MN         0.0000
     49 H           3.5255  -34.3079   -3.0664 H         1 1MN         0.0000
     50 H           3.0243  -33.4590   -0.9886 H         1 1MN         0.0000
@<TRIPOS>BOND
     1    1   21 1
     2    2   22 1
     3    3   23 2
     4    4   24 1
     5    4   25 1
     6    5    6 1
     7    5   23 am
     8    5   26 1
     9    6   30 1
    10    6   31 1
    11    6   32 1
    12    7    8 ar
    13    7    9 ar
    14    7   33 1
    15    8   14 ar
    16    8   34 1
    17    9   15 ar
    18    9   35 1
    19   10   16 ar
    20   10   21 ar
    21   10   36 1
    22   11   17 ar
    23   11   21 ar
    24   11   37 1
    25   12   18 ar
    26   12   22 ar
    27   12   38 1
    28   13   19 ar
    29   13   22 ar
    30   13   39 1
    31   14   27 ar
    32   14   40 1
    33   15   27 ar
    34   15   41 1
    35   16   28 ar
    36   16   42 1
    37   17   28 ar
    38   17   43 1
    39   18   29 ar
    40   18   44 1
    41   19   29 ar
    42   19   45 1
    43   20   24 1
    44   20   27 1
    45   20   46 1
    46   20   47 1
    47   23   24 1
    48   24   48 1
    49   25   26 1
    50   25   28 1
    51   25   49 1
    52   26   29 1
    53   26   50 1

