#    Name:    4aq3_ligand
#    Version:    PDBbind v2024

@<TRIPOS>MOLECULE
4aq3_ligand
   94    99     1     0     0
SMALL
USER_CHARGES

@<TRIPOS>ATOM
      1 O53       -22.6270    1.5700   -9.9880 O.2       1 398         0.0000
      2 C42       -22.5310    2.6470   -9.4610 C.2       1 398         0.0000
      3 N43       -22.2930    2.7670   -8.1400 N.am      1 398         0.0000
      4 C48       -22.0550    4.0520   -7.4770 C.3       1 398         0.0000
      5 C47       -20.7410    3.8810   -6.7250 C.ar      1 398         0.0000
      6 C49       -20.1460    4.9670   -6.0960 C.ar      1 398         0.0000
      7 C50       -18.9350    4.7600   -5.4260 C.ar      1 398         0.0000
      8 C51       -18.3090    3.4960   -5.3150 C.ar      1 398         0.0000
      9 C52       -18.8830    2.3710   -5.9240 C.ar      1 398         0.0000
     10 C46       -20.0830    2.5280   -6.6210 C.ar      1 398         0.0000
     11 C45       -20.7580    1.3160   -7.2300 C.3       1 398         0.0000
     12 C44       -22.2690    1.5770   -7.2460 C.3       1 398         0.0000
     13 C1        -22.7280    3.8120  -10.3790 C.ar      1 398         0.0000
     14 C6        -21.6290    4.1860  -11.2780 C.ar      1 398         0.0000
     15 N7        -20.5480    3.4220  -11.3250 N.pl3     1 398         0.0000
     16 N11       -19.8030    3.1280  -10.1790 N.2       1 398         0.0000
     17 C10       -18.8260    2.3050  -10.5670 C.2       1 398         0.0000
     18 C12       -17.7960    1.6280   -9.7380 C.2       1 398         0.0000
     19 O22       -18.0750    0.5030   -9.3420 O.2       1 398         0.0000
     20 N13       -16.6370    2.1490   -9.3910 N.am      1 398         0.0000
     21 C18       -16.4590    3.4660   -8.8080 C.3       1 398         0.0000
     22 C19       -16.6810    4.5510   -9.8430 C.3       1 398         0.0000
     23 C20       -17.6320    5.5980   -9.2470 C.3       1 398         0.0000
     24 C21       -16.9910    6.5890   -8.2890 C.3       1 398         0.0000
     25 C14       -15.4370    1.3180   -9.5430 C.3       1 398         0.0000
     26 C15       -15.0020    1.0630   -8.1350 C.3       1 398         0.0000
     27 C16       -13.5160    0.8270   -8.1650 C.3       1 398         0.0000
     28 C17       -13.2780   -0.0370   -9.3680 C.3       1 398         0.0000
     29 C9        -19.1210    2.0220  -11.9810 C.2       1 398         0.0000
     30 CL23      -18.2010    0.9220  -13.1250 Cl        1 398         0.0000
     31 C8        -20.2810    2.7580  -12.4610 C.2       1 398         0.0000
     32 C24       -20.9220    2.7980  -13.8530 C.3       1 398         0.0000
     33 C5        -21.8570    5.2660  -12.1310 C.ar      1 398         0.0000
     34 C4        -23.0430    5.9570  -12.1310 C.ar      1 398         0.0000
     35 C3        -24.0550    5.6180  -11.2380 C.ar      1 398         0.0000
     36 C2        -23.9090    4.5440  -10.3640 C.ar      1 398         0.0000
     37 C25       -25.3140    6.4220  -11.2330 C.2       1 398         0.0000
     38 O26       -25.4460    7.2750  -12.0690 O.2       1 398         0.0000
     39 N27       -26.2460    6.1250  -10.3460 N.am      1 398         0.0000
     40 S28       -27.6500    6.8810  -10.2360 S.o2      1 398         0.0000
     41 O29       -28.4000    6.8080  -11.4500 O.2       1 398         0.0000
     42 O30       -28.3230    6.1570   -9.1890 O.2       1 398         0.0000
     43 C31       -27.4990    8.4550   -9.8030 C.ar      1 398         0.0000
     44 C36       -27.4750    9.4460  -10.7860 C.ar      1 398         0.0000
     45 C35       -27.3570   10.7790  -10.4430 C.ar      1 398         0.0000
     46 C37       -27.3240   11.7290  -11.4660 C.ar      1 398         0.0000
     47 C38       -27.2060   13.0700  -11.1750 C.ar      1 398         0.0000
     48 I41       -27.2390   14.4560  -12.7720 I         1 398         0.0000
     49 C39       -27.1360   13.4660   -9.8140 C.ar      1 398         0.0000
     50 C40       -27.1730   12.5230   -8.7660 C.ar      1 398         0.0000
     51 C34       -27.2850   11.1680   -9.0890 C.ar      1 398         0.0000
     52 C33       -27.2950   10.1990   -8.1070 C.ar      1 398         0.0000
     53 C32       -27.4210    8.8500   -8.4530 C.ar      1 398         0.0000
     54 H         -21.9857    4.8476   -8.2335 H         1 398         0.0000
     55 H         -22.8865    4.2701   -6.7907 H         1 398         0.0000
     56 H         -20.6069    5.9478   -6.1233 H         1 398         0.0000
     57 H         -18.4503    5.6142   -4.9672 H         1 398         0.0000
     58 H         -17.3842    3.3972   -4.7582 H         1 398         0.0000
     59 H         -18.4056    1.4002   -5.8553 H         1 398         0.0000
     60 H         -20.3866    1.1655   -8.2544 H         1 398         0.0000
     61 H         -20.5314    0.4267   -6.6235 H         1 398         0.0000
     62 H         -22.6938    1.8450   -6.2674 H         1 398         0.0000
     63 H         -22.8646    0.7687   -7.6953 H         1 398         0.0000
     64 H         -17.1808    3.6053   -7.9897 H         1 398         0.0000
     65 H         -15.4360    3.5574   -8.4141 H         1 398         0.0000
     66 H         -15.7179    5.0176  -10.0974 H         1 398         0.0000
     67 H         -17.1249    4.1096  -10.7475 H         1 398         0.0000
     68 H         -18.0777    6.1924  -10.0582 H         1 398         0.0000
     69 H         -18.4291    5.0908   -8.6835 H         1 398         0.0000
     70 H         -17.7546    7.2905   -7.9220 H         1 398         0.0000
     71 H         -16.2016    7.1476   -8.8132 H         1 398         0.0000
     72 H         -16.5529    6.0460   -7.4386 H         1 398         0.0000
     73 H         -15.6982    0.3903  -10.0732 H         1 398         0.0000
     74 H         -14.6799    1.8693  -10.1199 H         1 398         0.0000
     75 H         -15.2427    1.9376   -7.5128 H         1 398         0.0000
     76 H         -15.5266    0.1790   -7.7435 H         1 398         0.0000
     77 H         -12.9933    1.7911   -8.2504 H         1 398         0.0000
     78 H         -13.2060    0.3227   -7.2379 H         1 398         0.0000
     79 H         -12.2033   -0.2539   -9.4568 H         1 398         0.0000
     80 H         -13.6217    0.4889  -10.2709 H         1 398         0.0000
     81 H         -13.8345   -0.9795   -9.2584 H         1 398         0.0000
     82 H         -21.7913    3.4718  -13.8371 H         1 398         0.0000
     83 H         -21.2475    1.7861  -14.1360 H         1 398         0.0000
     84 H         -20.1871    3.1648  -14.5847 H         1 398         0.0000
     85 H         -21.0729    5.5691  -12.8154 H         1 398         0.0000
     86 H         -23.1922    6.7714  -12.8306 H         1 398         0.0000
     87 H         -24.7077    4.2818   -9.6796 H         1 398         0.0000
     88 H         -27.5498    9.1663  -11.8306 H         1 398         0.0000
     89 H         -27.3919   11.4079  -12.4991 H         1 398         0.0000
     90 H         -27.0520   14.5197   -9.5739 H         1 398         0.0000
     91 H         -27.1158   12.8425   -7.7317 H         1 398         0.0000
     92 H         -27.2050   10.4840   -7.0650 H         1 398         0.0000
     93 H         -27.4591    8.0987   -7.6725 H         1 398         0.0000
     94 H         -26.0621    5.3812   -9.7034 H         1 398         0.0000
@<TRIPOS>BOND
     1    1    2 2
     2    2    3 am
     3    2   13 1
     4    3    4 1
     5    3   12 1
     6    4    5 1
     7    4   54 1
     8    4   55 1
     9    5    6 ar
    10    5   10 ar
    11    6    7 ar
    12    6   56 1
    13    7    8 ar
    14    7   57 1
    15    8    9 ar
    16    8   58 1
    17    9   10 ar
    18    9   59 1
    19   10   11 1
    20   11   12 1
    21   11   60 1
    22   11   61 1
    23   12   62 1
    24   12   63 1
    25   13   14 ar
    26   13   36 ar
    27   14   15 1
    28   14   33 ar
    29   15   16 1
    30   15   31 1
    31   16   17 2
    32   17   18 1
    33   17   29 1
    34   18   19 2
    35   18   20 am
    36   20   21 1
    37   20   25 1
    38   21   22 1
    39   21   64 1
    40   21   65 1
    41   22   23 1
    42   22   66 1
    43   22   67 1
    44   23   24 1
    45   23   68 1
    46   23   69 1
    47   24   70 1
    48   24   71 1
    49   24   72 1
    50   25   26 1
    51   25   73 1
    52   25   74 1
    53   26   27 1
    54   26   75 1
    55   26   76 1
    56   27   28 1
    57   27   77 1
    58   27   78 1
    59   28   79 1
    60   28   80 1
    61   28   81 1
    62   29   30 1
    63   29   31 2
    64   31   32 1
    65   32   82 1
    66   32   83 1
    67   32   84 1
    68   33   34 ar
    69   33   85 1
    70   34   35 ar
    71   34   86 1
    72   35   36 ar
    73   35   37 1
    74   36   87 1
    75   37   38 2
    76   37   39 am
    77   39   40 am
    78   40   41 2
    79   40   42 2
    80   40   43 1
    81   43   44 ar
    82   43   53 ar
    83   44   45 ar
    84   44   88 1
    85   45   46 ar
    86   45   51 ar
    87   46   47 ar
    88   46   89 1
    89   47   48 1
    90   47   49 ar
    91   49   50 ar
    92   49   90 1
    93   50   51 ar
    94   50   91 1
    95   51   52 ar
    96   52   53 ar
    97   52   92 1
    98   53   93 1
    99   39   94 1

