#    Name:    6fhu_ligand
#    Version:    PDBbind v2024

@<TRIPOS>MOLECULE
6fhu_ligand
   42    41     1     0     0
SMALL
USER_CHARGES

@<TRIPOS>ATOM
      1 O          19.9540   38.6590   14.5630 O.2       1 ALA         0.0000
      2 N          21.4220   39.3340   16.8500 N.4       1 ALA         1.0000
      3 CB         19.5410   37.9670   17.7290 C.3       1 ALA         0.0000
      4 C          20.2380   37.7350   15.3300 C.2       1 ALA         0.0000
      5 CA         20.7160   38.0180   16.7560 C.3       1 ALA         0.0000
      6 O          17.6050   35.4790   14.4880 O.2       1 ARG         0.0000
      7 N          20.1380   36.4490   15.0020 N.am      1 ARG         0.0000
      8 CG         22.0990   34.8130   13.6060 C.3       1 ARG         0.0000
      9 C          18.2920   35.7430   13.4940 C.2       1 ARG         0.0000
     10 CB         20.6050   34.7060   13.3350 C.3       1 ARG         0.0000
     11 CA         19.8090   35.9860   13.6470 C.3       1 ARG         0.0000
     12 O          16.8660   34.5560    9.9160 O.2       1 9AT         0.0000
     13 OG1        16.4690   37.8440   10.8500 O.3       1 9AT         0.0000
     14 NXT        14.8600   34.1330   10.8310 N.am      1 9AT         0.0000
     15 N          17.7850   35.8430   12.2580 N.am      1 9AT         0.0000
     16 CG2        15.3020   37.7750   12.9670 C.3       1 9AT         0.0000
     17 C          16.0410   34.7350   10.8100 C.2       1 9AT         0.0000
     18 CB         15.6460   37.0370   11.6920 C.3       1 9AT         0.0000
     19 CA         16.3460   35.6960   11.9630 C.3       1 9AT         0.0000
     20 H          21.7495   39.5012   17.8867 H         1 ALA         0.0000
     21 H          20.7372   40.1399   16.5473 H         1 ALA         0.0000
     22 H          22.2983   39.3283   16.1851 H         1 ALA         0.0000
     23 H          19.8999   38.1721   18.7484 H         1 ALA         0.0000
     24 H          19.0809   36.9684   17.6962 H         1 ALA         0.0000
     25 H          18.7955   38.7238   17.4435 H         1 ALA         0.0000
     26 H          21.4544   37.2523   17.0359 H         1 ALA         0.0000
     27 H          20.3155   35.7184   15.8049 H         1 ARG         0.0000
     28 H          22.5861   33.8588   13.3567 H         1 ARG         0.0000
     29 H          22.2633   35.0418   14.6693 H         1 ARG         0.0000
     30 H          22.5272   35.6158   12.9878 H         1 ARG         0.0000
     31 H          20.4407   34.4772   12.2717 H         1 ARG         0.0000
     32 H          20.1768   33.9032   13.9532 H         1 ARG         0.0000
     33 H          20.1088   36.7966   12.9664 H         1 ARG         0.0000
     34 H          16.1305   38.8458   10.5469 H         1 9AT         0.0000
     35 H          14.5856   33.4320   10.0289 H         1 9AT         0.0000
     36 H          14.1545   34.3345   11.6505 H         1 9AT         0.0000
     37 H          18.4957   36.0444   11.4430 H         1 9AT         0.0000
     38 H          14.8049   38.7242   12.7185 H         1 9AT         0.0000
     39 H          16.2234   37.9805   13.5317 H         1 9AT         0.0000
     40 H          14.6277   37.1569   13.5779 H         1 9AT         0.0000
     41 H          14.7118   36.8754   11.1342 H         1 9AT         0.0000
     42 H          15.9842   35.2566   12.9043 H         1 9AT         0.0000
@<TRIPOS>BOND
     1    1    4 2
     2    2    5 1
     3    2   20 1
     4    2   21 1
     5    2   22 1
     6    3    5 1
     7    3   23 1
     8    3   24 1
     9    3   25 1
    10    4    5 1
    11    4    7 am
    12    5   26 1
    13    6    9 2
    14    7   11 1
    15    7   27 1
    16    8   10 1
    17    8   28 1
    18    8   29 1
    19    8   30 1
    20    9   11 1
    21    9   15 am
    22   10   11 1
    23   10   31 1
    24   10   32 1
    25   11   33 1
    26   12   17 2
    27   13   18 1
    28   13   34 1
    29   14   17 am
    30   14   35 1
    31   14   36 1
    32   15   19 1
    33   15   37 1
    34   16   18 1
    35   16   38 1
    36   16   39 1
    37   16   40 1
    38   17   19 1
    39   18   19 1
    40   18   41 1
    41   19   42 1

