#    Name:    4lwv_ligand
#    Version:    PDBbind v2024

@<TRIPOS>MOLECULE
4lwv_ligand
   71    75     1     0     0
SMALL
USER_CHARGES

@<TRIPOS>ATOM
      1 CL1         4.6980  -35.1340  -13.8390 Cl        1 20W         0.0000
      2 CL2        -2.1930  -35.1960  -14.7520 Cl        1 20W         0.0000
      3 S4          2.9280  -32.6410  -13.4560 S.3       1 20W         0.0000
      4 F1         -0.2860  -33.0700  -14.2950 F         1 20W         0.0000
      5 O51        -1.6070  -21.6920  -14.4810 O.2       1 20W         0.0000
      6 O41        -1.9220  -29.0380  -13.4930 O.2       1 20W         0.0000
      7 O2         -0.0120  -31.7320   -9.2390 O.2       1 20W         0.0000
      8 O49         0.3960  -25.3140  -11.4230 O.3       1 20W         0.0000
      9 N51        -1.8180  -22.7400  -16.4990 N.am      1 20W         0.0000
     10 N42        -0.4460  -27.6050  -12.4430 N.am      1 20W         0.0000
     11 N1          1.6080  -33.2700   -9.9130 N.am      1 20W         0.0000
     12 N12         0.5180  -29.2780  -10.8340 N.4       1 20W         1.0000
     13 C50         0.7490  -24.0460  -10.8870 C.3       1 20W         0.0000
     14 C23         4.7430  -29.0980   -8.9260 C.3       1 20W         0.0000
     15 C24         4.4330  -29.0570  -11.4120 C.3       1 20W         0.0000
     16 C25         2.9920  -27.6390   -9.9550 C.3       1 20W         0.0000
     17 C35        -3.1150  -33.2470  -11.3540 C.ar      1 20W         0.0000
     18 C34        -3.1490  -34.1680  -12.4080 C.ar      1 20W         0.0000
     19 C48        -1.3560  -26.4710  -14.4230 C.ar      1 20W         0.0000
     20 C36        -2.1150  -32.2570  -11.2920 C.ar      1 20W         0.0000
     21 C47        -1.5910  -25.2640  -15.0890 C.ar      1 20W         0.0000
     22 C6          3.2240  -34.4480  -11.5340 C.2       1 20W         0.0000
     23 C45        -0.4530  -24.0440  -13.2980 C.ar      1 20W         0.0000
     24 C21         2.6840  -30.1500   -9.9700 C.3       1 20W         0.0000
     25 C5          3.6240  -34.1530  -12.8300 C.2       1 20W         0.0000
     26 C33        -2.1800  -34.0900  -13.4020 C.ar      1 20W         0.0000
     27 C51        -1.5330  -22.7600  -15.1320 C.2       1 20W         0.0000
     28 C7          2.0850  -32.4730  -11.9510 C.2       1 20W         0.0000
     29 C41        -1.0810  -28.8460  -12.6090 C.2       1 20W         0.0000
     30 C2          0.8010  -32.1070  -10.0760 C.2       1 20W         0.0000
     31 C32        -1.2070  -33.1200  -13.3180 C.ar      1 20W         0.0000
     32 C44        -0.2480  -25.2500  -12.6570 C.ar      1 20W         0.0000
     33 C8          2.3430  -33.4430  -11.1300 C.2       1 20W         0.0000
     34 C43        -0.6970  -26.4310  -13.2000 C.ar      1 20W         0.0000
     35 C11         1.7130  -30.1000  -11.1510 C.3       1 20W         0.0000
     36 C13        -0.6410  -29.8600  -11.6160 C.3       1 20W         0.0000
     37 C46        -1.1690  -24.0410  -14.5120 C.ar      1 20W         0.0000
     38 C31        -1.1500  -32.1950  -12.2900 C.ar      1 20W         0.0000
     39 C14        -0.1070  -31.1200  -12.2790 C.3       1 20W         0.0000
     40 C22         3.7100  -28.9860  -10.0640 C.3       1 20W         0.0000
     41 C3          1.1270  -31.4430  -11.4290 C.3       1 20W         0.0000
     42 H          -2.0934  -21.7948  -16.9896 H         1 20W         0.0000
     43 H          -1.7671  -23.6695  -17.0851 H         1 20W         0.0000
     44 H           0.3245  -27.4807  -11.6678 H         1 20W         0.0000
     45 H           1.5731  -33.8360   -8.9704 H         1 20W         0.0000
     46 H           0.3186  -29.3225   -9.7531 H         1 20W         0.0000
     47 H           0.7015  -28.2347  -11.1303 H         1 20W         0.0000
     48 H           1.2500  -24.1843   -9.9175 H         1 20W         0.0000
     49 H          -0.1592  -23.4412  -10.7475 H         1 20W         0.0000
     50 H           1.4294  -23.5311  -11.5812 H         1 20W         0.0000
     51 H           5.4634  -28.2702   -9.0020 H         1 20W         0.0000
     52 H           5.2761  -30.0567   -9.0077 H         1 20W         0.0000
     53 H           4.2268  -29.0470   -7.9560 H         1 20W         0.0000
     54 H           5.1600  -28.2345  -11.4819 H         1 20W         0.0000
     55 H           3.6993  -28.9681  -12.2267 H         1 20W         0.0000
     56 H           4.9590  -30.0194  -11.4957 H         1 20W         0.0000
     57 H           3.7282  -26.8245  -10.0229 H         1 20W         0.0000
     58 H           2.4678  -27.5800   -8.9897 H         1 20W         0.0000
     59 H           2.2639  -27.5443  -10.7741 H         1 20W         0.0000
     60 H          -3.8721  -33.2968  -10.5714 H         1 20W         0.0000
     61 H          -3.9231  -34.9343  -12.4486 H         1 20W         0.0000
     62 H          -1.6813  -27.4188  -14.8520 H         1 20W         0.0000
     63 H          -2.0982  -31.5446  -10.4672 H         1 20W         0.0000
     64 H          -2.0994  -25.2643  -16.0532 H         1 20W         0.0000
     65 H           3.5396  -35.3063  -10.9408 H         1 20W         0.0000
     66 H          -0.0698  -23.1156  -12.8746 H         1 20W         0.0000
     67 H           2.1219  -30.0575   -9.0290 H         1 20W         0.0000
     68 H           3.2257  -31.1073   -9.9809 H         1 20W         0.0000
     69 H           2.2799  -29.7004  -12.0048 H         1 20W         0.0000
     70 H          -1.5221  -30.0963  -11.0014 H         1 20W         0.0000
     71 H           0.1369  -31.0219  -13.3471 H         1 20W         0.0000
@<TRIPOS>BOND
     1    1   25 1
     2    2   26 1
     3    3   25 1
     4    3   28 1
     5    4   31 1
     6    5   27 2
     7    6   29 2
     8    7   30 2
     9    8   13 1
    10    8   32 1
    11    9   27 am
    12    9   42 1
    13    9   43 1
    14   10   29 am
    15   10   34 1
    16   10   44 1
    17   11   30 am
    18   11   33 1
    19   11   45 1
    20   12   35 1
    21   12   36 1
    22   12   46 1
    23   12   47 1
    24   13   48 1
    25   13   49 1
    26   13   50 1
    27   14   40 1
    28   14   51 1
    29   14   52 1
    30   14   53 1
    31   15   40 1
    32   15   54 1
    33   15   55 1
    34   15   56 1
    35   16   40 1
    36   16   57 1
    37   16   58 1
    38   16   59 1
    39   17   18 ar
    40   17   20 ar
    41   17   60 1
    42   18   26 ar
    43   18   61 1
    44   19   21 ar
    45   19   34 ar
    46   19   62 1
    47   20   38 ar
    48   20   63 1
    49   21   37 ar
    50   21   64 1
    51   22   25 2
    52   22   33 1
    53   22   65 1
    54   23   32 ar
    55   23   37 ar
    56   23   66 1
    57   24   35 1
    58   24   40 1
    59   24   67 1
    60   24   68 1
    61   26   31 ar
    62   27   37 1
    63   28   33 2
    64   28   41 1
    65   29   36 1
    66   30   41 1
    67   31   38 ar
    68   32   34 ar
    69   35   41 1
    70   35   69 1
    71   36   39 1
    72   36   70 1
    73   38   39 1
    74   39   41 1
    75   39   71 1

