#    Name:    2lk1_ligand
#    Version:    PDBbind v2024

@<TRIPOS>MOLECULE
2lk1_ligand
   27    29     1     0     0
SMALL
USER_CHARGES

@<TRIPOS>ATOM
      1 S15         4.7330    1.3150    7.4940 S.o2      1 AQN         0.0000
      2 OS1         5.7560    0.6260    8.2560 O.co2     1 AQN        -0.3333
      3 OS2         4.3120    0.7800    6.2220 O.co2     1 AQN        -0.3333
      4 OS3         5.1740    2.7350    7.2840 O.co2     1 AQN        -0.3333
      5 O10        -0.0820    2.3300   12.1660 O.2       1 AQN         0.0000
      6 O3         -0.5390    2.1550    6.8430 O.2       1 AQN         0.0000
      7 C7         -3.9170    2.8680   10.5060 C.ar      1 AQN         0.0000
      8 C6         -4.0380    2.8450    9.1140 C.ar      1 AQN         0.0000
      9 C8         -2.6690    2.6790   11.1000 C.ar      1 AQN         0.0000
     10 C5         -2.9090    2.6280    8.3190 C.ar      1 AQN         0.0000
     11 C13         3.4180    1.6450    9.8930 C.ar      1 AQN         0.0000
     12 C12         2.2900    1.8650   10.6870 C.ar      1 AQN         0.0000
     13 C1          2.0180    1.5930    7.9320 C.ar      1 AQN         0.0000
     14 C14         3.2870    1.5180    8.5100 C.ar      1 AQN         0.0000
     15 C10        -0.1890    2.2720   10.9510 C.2       1 AQN         0.0000
     16 C3         -0.4410    2.1610    8.0590 C.2       1 AQN         0.0000
     17 C9         -1.5420    2.4630   10.3050 C.ar      1 AQN         0.0000
     18 C4         -1.6610    2.4250    8.9130 C.ar      1 AQN         0.0000
     19 C11         1.0320    2.0110   10.0970 C.ar      1 AQN         0.0000
     20 C2          0.9010    1.9120    8.7100 C.ar      1 AQN         0.0000
     21 H          -4.7972    3.0335   11.1272 H         1 AQN         0.0000
     22 H          -5.0120    2.9962    8.6486 H         1 AQN         0.0000
     23 H          -2.5738    2.7000   12.1856 H         1 AQN         0.0000
     24 H          -3.0026    2.6171    7.2331 H         1 AQN         0.0000
     25 H           4.4026    1.5724   10.3550 H         1 AQN         0.0000
     26 H           2.3916    1.9230   11.7707 H         1 AQN         0.0000
     27 H           1.8974    1.4013    6.8658 H         1 AQN         0.0000
@<TRIPOS>BOND
     1    1    2 ar
     2    1    3 ar
     3    1    4 ar
     4    1   14 1
     5    5   15 2
     6    6   16 2
     7    7    8 ar
     8    7    9 ar
     9    7   21 1
    10    8   10 ar
    11    8   22 1
    12    9   17 ar
    13    9   23 1
    14   10   18 ar
    15   10   24 1
    16   11   12 ar
    17   11   14 ar
    18   11   25 1
    19   12   19 ar
    20   12   26 1
    21   13   14 ar
    22   13   20 ar
    23   13   27 1
    24   15   17 1
    25   15   19 1
    26   16   18 1
    27   16   20 1
    28   17   18 ar
    29   19   20 ar

